ipss.test.plugin.core/testData/adpter/psse/v36/Texas2k_series24_case1_2016summerPeak_v36_labeled.RAW
@!IC,SBASE,REV,XFRRAT,NXFRAT,BASFRQ
0,  100.00, 36,     0,     1, 60.00     / PSS(R)E-36.2    MON, MAR 31 2025  20:22
TEXAS2K_SERIES24_CASE1_2016SUMMERPEAK
THIS IS A SYNTHETIC POWER SYSTEM MODEL THAT DOES NOT REPRESE
GENERAL, THRSHZ=0.0001, PQBRAK=0.7, BLOWUP=5.0, MaxIsolLvls=4, CAMaxReptSln=20, ChkDupCntLbl=0
GAUSS, ITMX=100, ACCP=1.6, ACCQ=1.6, ACCM=1.0, TOL=0.0001
NEWTON, ITMXN=20, ACCN=1.0, TOLN=0.1, VCTOLQ=0.1, VCTOLV=0.00001, DVLIM=0.99, NDVFCT=0.99
ADJUST, ADJTHR=0.005, ACCTAP=1.0, TAPLIM=0.05, SWVBND=100.0, MXTPSS=99, MXSWIM=10
TYSL, ITMXTY=20, ACCTY=1.0, TOLTY=0.00001
SOLVER, FNSL, ACTAPS=0, AREAIN=0, PHSHFT=0, DCTAPS=1, SWSHNT=0, FLATST=0, VARLIM=-1, NONDIV=0
RATING, 1, "RATE1 ", "RATING SET 1                    "
RATING, 2, "RATE2 ", "RATING SET 2                    "
RATING, 3, "RATE3 ", "RATING SET 3                    "
RATING, 4, "RATE4 ", "RATING SET 4                    "
RATING, 5, "RATE5 ", "RATING SET 5                    "
RATING, 6, "RATE6 ", "RATING SET 6                    "
RATING, 7, "RATE7 ", "RATING SET 7                    "
RATING, 8, "RATE8 ", "RATING SET 8                    "
RATING, 9, "RATE9 ", "RATING SET 9                    "
RATING,10, "RATE10", "RATING SET 10                   "
RATING,11, "RATE11", "RATING SET 11                   "
RATING,12, "RATE12", "RATING SET 12                   "
SWDRATNAM,  1, "RATE1 ", 0, "MVA", "SWD RATING SET 1                "
SWDRATNAM,  2, "RATE2 ", 0, "MVA", "SWD RATING SET 2                "
SWDRATNAM,  3, "RATE3 ", 0, "MVA", "SWD RATING SET 3                "
SWDRATNAM,  4, "RATE4 ", 0, "MVA", "SWD RATING SET 4                "
SWDRATNAM,  5, "RATE5 ", 0, "MVA", "SWD RATING SET 5                "
SWDRATNAM,  6, "RATE6 ", 0, "MVA", "SWD RATING SET 6                "
SWDRATNAM,  7, "RATE7 ", 0, "MVA", "SWD RATING SET 7                "
SWDRATNAM,  8, "RATE8 ", 0, "MVA", "SWD RATING SET 8                "
SWDRATNAM,  9, "RATE9 ", 0, "MVA", "SWD RATING SET 9                "
SWDRATNAM, 10, "RATE10", 0, "MVA", "SWD RATING SET 10               "
SWDRATNAM, 11, "RATE11", 0, "MVA", "SWD RATING SET 11               "
SWDRATNAM, 12, "RATE12", 0, "MVA", "SWD RATING SET 12               "
0 / END OF SYSTEM-WIDE DATA, BEGIN BUS DATA
@!   I,'NAME        ', BASKV, IDE,AREA,ZONE,OWNER, VM,        VA,    NVHI,   NVLO,   EVHI,   EVLO
  1001,'ODESSA 2 0  ', 115.0000,1,   1,   9,   1,0.97808, -26.5095,1.10000,0.90000,1.10000,0.90000 /* [ bus_1001_115kv] */
  1002,'PRESIDIO 2 0', 115.0000,1,   1,   9,   1,1.01043, -21.2203,1.10000,0.90000,1.10000,0.90000 /* [ bus_1002_115kv] */
  1003,'O DONNELL ~1', 115.0000,1,   1,   9,   1,1.00801, -24.3566,1.10000,0.90000,1.10000,0.90000 /* [ bus_1003_115kv] */
  1004,'O DONNELL ~2', 230.0000,2,   1,   9,   1,1.01000, -25.9514,1.10000,0.90000,1.10000,0.90000 /* [ bus_1004_230kv] */
  1005,'BIG SPRING~8', 115.0000,1,   1,   9,   1,1.00863, -20.3067,1.10000,0.90000,1.10000,0.90000 /* [ bus_1005_115kv] */
  1006,'BIG SPRING~9',  13.8000,2,   1,   9,   1,1.00000, -18.1346,1.10000,0.90000,1.10000,0.90000 /* [ bus_1006_13.8kv] */
  1007,'VAN HORN 0  ', 115.0000,1,   1,   9,   1,1.01958, -21.6933,1.10000,0.90000,1.10000,0.90000 /* [ bus_1007_115kv] */
  1008,'IRAAN 2 0   ', 115.0000,1,   1,   9,   1,1.01070, -11.1157,1.10000,0.90000,1.10000,0.90000 /* [ bus_1008_115kv] */
  1009,'IRAAN 2 1   ',  13.8000,2,   1,   9,   1,1.00000,  -7.7599,1.10000,0.90000,1.10000,0.90000 /* [ bus_1009_13.8kv] */
  1010,'PRESIDIO 1 0', 115.0000,1,   1,   9,   1,1.01730, -19.8829,1.10000,0.90000,1.10000,0.90000 /* [ bus_1010_115kv] */
  1011,'PRESIDIO 1 1',  22.0000,2,   1,   9,   1,1.01751, -18.0859,1.10000,0.90000,1.10000,0.90000 /* [ bus_1011_22kv] */
  1012,'SANDERSON 0 ', 115.0000,1,   1,   9,   1,1.00615, -27.0522,1.10000,0.90000,1.10000,0.90000 /* [ bus_1012_115kv] */
  1013,'MONAHANS 2 0', 115.0000,1,   1,   9,   1,1.00395, -18.8227,1.10000,0.90000,1.10000,0.90000 /* [ bus_1013_115kv] */
  1014,'GRANDFALLS 0', 115.0000,1,   1,   9,   1,1.00643, -15.0230,1.10000,0.90000,1.10000,0.90000 /* [ bus_1014_115kv] */
  1015,'MARFA 0     ', 115.0000,1,   1,   9,   1,1.02006, -21.3665,1.10000,0.90000,1.10000,0.90000 /* [ bus_1015_115kv] */
  1016,'GARDEN CIT~1', 115.0000,1,   1,   9,   1,1.01833, -19.3594,1.10000,0.90000,1.10000,0.90000 /* [ bus_1016_115kv] */
  1017,'ODESSA 4 0  ', 115.0000,1,   1,   9,   1,0.98080, -25.1602,1.10000,0.90000,1.10000,0.90000 /* [ bus_1017_115kv] */
  1018,'NOTREES 0   ', 115.0000,1,   1,   9,   1,0.99067, -23.9057,1.10000,0.90000,1.10000,0.90000 /* [ bus_1018_115kv] */
  1019,'MIDLAND 4 0 ', 115.0000,1,   1,   9,   1,0.99948, -26.1188,1.10000,0.90000,1.10000,0.90000 /* [ bus_1019_115kv] */
  1020,'BIG SPRING~1', 115.0000,1,   1,   9,   1,1.02954, -19.5340,1.10000,0.90000,1.10000,0.90000 /* [ bus_1020_115kv] */
  1021,'BIG SPRING~2',  13.8000,2,   1,   9,   1,1.00000, -12.9500,1.10000,0.90000,1.10000,0.90000 /* [ bus_1021_13.8kv] */
  1022,'O DONNELL ~3', 115.0000,1,   1,   9,   1,1.01100, -23.6427,1.10000,0.90000,1.10000,0.90000 /* [ bus_1022_115kv] */
  1023,'O DONNELL ~4',  13.8000,2,   1,   9,   1,1.01000, -14.7295,1.10000,0.90000,1.10000,0.90000 /* [ bus_1023_13.8kv] */
  1024,'ODESSA 6 0  ', 115.0000,1,   1,   9,   1,0.99422, -22.8528,1.10000,0.90000,1.10000,0.90000 /* [ bus_1024_115kv] */
  1025,'BIG SPRIN~14', 115.0000,1,   1,   9,   1,1.02301, -18.4567,1.10000,0.90000,1.10000,0.90000 /* [ bus_1025_115kv] */
  1026,'BIG SPRIN~15',  13.8000,2,   1,   9,   1,1.00000,  -8.9820,1.10000,0.90000,1.10000,0.90000 /* [ bus_1026_13.8kv] */
  1027,'MIDLAND 2 0 ', 115.0000,1,   1,   9,   1,1.00903, -29.9371,1.10000,0.90000,1.10000,0.90000 /* [ bus_1027_115kv] */
  1028,'COAHOMA 0   ', 115.0000,1,   1,   9,   1,1.01373, -25.5394,1.10000,0.90000,1.10000,0.90000 /* [ bus_1028_115kv] */
  1029,'MIDLAND 3 0 ', 115.0000,1,   1,   9,   1,1.00487, -28.9228,1.10000,0.90000,1.10000,0.90000 /* [ bus_1029_115kv] */
  1030,'ALPINE 0    ', 115.0000,1,   1,   9,   1,1.00364, -16.2876,1.10000,0.90000,1.10000,0.90000 /* [ bus_1030_115kv] */
  1031,'FORT DAVIS 0', 115.0000,1,   1,   9,   1,1.01113, -20.9805,1.10000,0.90000,1.10000,0.90000 /* [ bus_1031_115kv] */
  1032,'MCCAMEY 1 0 ', 115.0000,1,   1,   9,   1,0.98884, -14.9491,1.10000,0.90000,1.10000,0.90000 /* [ bus_1032_115kv] */
  1033,'MCCAMEY 1 1 ', 230.0000,2,   1,   9,   1,1.00000, -19.6093,1.10000,0.90000,1.10000,0.90000 /* [ bus_1033_230kv] */
  1034,'BIG SPRING~6', 115.0000,1,   1,   9,   1,1.00577, -18.4006,1.10000,0.90000,1.10000,0.90000 /* [ bus_1034_115kv] */
  1035,'BIG SPRING~7',  13.8000,2,   1,   9,   1,1.00000, -15.1111,1.10000,0.90000,1.10000,0.90000 /* [ bus_1035_13.8kv] */
  1036,'CRANE 0     ', 115.0000,1,   1,   9,   1,0.99170, -15.4868,1.10000,0.90000,1.10000,0.90000 /* [ bus_1036_115kv] */
  1037,'ODESSA 5 0  ', 115.0000,1,   1,   9,   1,0.97326, -26.2896,1.10000,0.90000,1.10000,0.90000 /* [ bus_1037_115kv] */
  1038,'FORT STOCK~1', 115.0000,1,   1,   9,   1,1.00496, -10.2640,1.10000,0.90000,1.10000,0.90000 /* [ bus_1038_115kv] */
  1039,'FORT STOCK~2',  22.0000,2,   1,   9,   1,1.00000,  -4.8336,1.10000,0.90000,1.10000,0.90000 /* [ bus_1039_22kv] */
  1040,'ANDREWS 0   ', 115.0000,1,   1,   9,   1,0.99394, -24.1681,1.10000,0.90000,1.10000,0.90000 /* [ bus_1040_115kv] */
  1041,'FORSAN 0    ', 115.0000,1,   1,   9,   1,1.00369, -19.2995,1.10000,0.90000,1.10000,0.90000 /* [ bus_1041_115kv] */
  1042,'FORSAN 1    ',  13.8000,1,   1,   9,   1,1.00369, -19.2995,1.10000,0.90000,1.10000,0.90000 /* [ bus_1042_13.8kv] */
  1043,'FORSAN 2    ',  13.8000,2,   1,   9,   1,1.00000, -16.0598,1.10000,0.90000,1.10000,0.90000 /* [ bus_1043_13.8kv] */
  1044,'BIG LAKE 0  ', 115.0000,1,   1,   9,   1,1.01607, -30.1428,1.10000,0.90000,1.10000,0.90000 /* [ bus_1044_115kv] */
  1045,'MIDLAND 5 0 ', 115.0000,1,   1,   9,   1,0.97752, -28.2923,1.10000,0.90000,1.10000,0.90000 /* [ bus_1045_115kv] */
  1046,'OZONA 0     ', 115.0000,1,   1,   9,   1,1.01640, -25.0800,1.10000,0.90000,1.10000,0.90000 /* [ bus_1046_115kv] */
  1047,'MONAHANS 1 0', 115.0000,1,   1,   9,   1,1.00332, -16.7365,1.10000,0.90000,1.10000,0.90000 /* [ bus_1047_115kv] */
  1048,'MONAHANS 1 1',  18.0000,1,   1,   9,   1,1.00332, -16.7365,1.10000,0.90000,1.10000,0.90000 /* [ bus_1048_18kv] */
  1049,'MONAHANS 1 2',  18.0000,1,   1,   9,   1,1.00332, -16.7365,1.10000,0.90000,1.10000,0.90000 /* [ bus_1049_18kv] */
  1050,'MONAHANS 1 3',  18.0000,2,   1,   9,   1,1.00000, -11.6507,1.10000,0.90000,1.10000,0.90000 /* [ bus_1050_18kv] */
  1051,'MONAHANS 1 4',  18.0000,2,   1,   9,   1,1.00000, -10.1677,1.10000,0.90000,1.10000,0.90000 /* [ bus_1051_18kv] */
  1052,'MONAHANS 1 5',  18.0000,2,   1,   9,   1,1.00000, -12.5058,1.10000,0.90000,1.10000,0.90000 /* [ bus_1052_18kv] */
  1053,'MONAHANS 1 6', 230.0000,1,   1,   9,   1,1.01152, -20.6683,1.10000,0.90000,1.10000,0.90000 /* [ bus_1053_230kv] */
  1054,'STANTON 0   ', 115.0000,1,   1,   9,   1,1.00921, -27.1848,1.10000,0.90000,1.10000,0.90000 /* [ bus_1054_115kv] */
  1055,'ODONNELL 0  ', 115.0000,1,   1,   9,   1,1.00125, -25.1655,1.10000,0.90000,1.10000,0.90000 /* [ bus_1055_115kv] */
  1056,'LENORAH 0   ', 115.0000,1,   1,   9,   1,1.02523, -26.1573,1.10000,0.90000,1.10000,0.90000 /* [ bus_1056_115kv] */
  1057,'LENORAH 1   ',  18.0000,1,   1,   9,   1,1.02523, -26.1573,1.10000,0.90000,1.10000,0.90000 /* [ bus_1057_18kv] */
  1058,'IRAAN 3 0   ', 115.0000,1,   1,   9,   1,1.01324, -13.6778,1.10000,0.90000,1.10000,0.90000 /* [ bus_1058_115kv] */
  1059,'IRAAN 3 1   ',  22.0000,1,   1,   9,   1,1.01324, -13.6778,1.10000,0.90000,1.10000,0.90000 /* [ bus_1059_22kv] */
  1060,'IRAAN 3 2   ',  22.0000,1,   1,   9,   1,1.01324, -13.6778,1.10000,0.90000,1.10000,0.90000 /* [ bus_1060_22kv] */
  1061,'BIG SPRIN~10', 115.0000,1,   1,   9,   1,1.00966, -21.4640,1.10000,0.90000,1.10000,0.90000 /* [ bus_1061_115kv] */
  1062,'BIG SPRIN~11',  13.8000,1,   1,   9,   1,1.00966, -21.4640,1.10000,0.90000,1.10000,0.90000 /* [ bus_1062_13.8kv] */
  1063,'BIG SPRIN~12',  13.8000,1,   1,   9,   1,1.00966, -21.4640,1.10000,0.90000,1.10000,0.90000 /* [ bus_1063_13.8kv] */
  1064,'ODESSA 3 0  ', 115.0000,1,   1,   9,   1,0.97113, -27.9526,1.10000,0.90000,1.10000,0.90000 /* [ bus_1064_115kv] */
  1065,'BIG SPRING~4', 115.0000,1,   1,   9,   1,1.00630, -19.1507,1.10000,0.90000,1.10000,0.90000 /* [ bus_1065_115kv] */
  1066,'BIG SPRING~5',  13.8000,2,   1,   9,   1,1.00000, -11.6277,1.10000,0.90000,1.10000,0.90000 /* [ bus_1066_13.8kv] */
  1067,'BIG SPRIN~13', 115.0000,1,   1,   9,   1,1.00068, -19.8551,1.10000,0.90000,1.10000,0.90000 /* [ bus_1067_115kv] */
  1068,'MIDLAND 1 0 ', 115.0000,1,   1,   9,   1,0.98710, -20.0084,1.10000,0.90000,1.10000,0.90000 /* [ bus_1068_115kv] */
  1069,'IRAAN 1 0   ', 115.0000,1,   1,   9,   1,1.01516, -11.2141,1.10000,0.90000,1.10000,0.90000 /* [ bus_1069_115kv] */
  1070,'IRAAN 1 1   ',  13.8000,2,   1,   9,   1,1.04000,  -6.6952,1.10000,0.90000,1.10000,0.90000 /* [ bus_1070_13.8kv] */
  1071,'ODESSA 1 0  ', 115.0000,1,   1,   9,   1,0.98534, -25.2281,1.10000,0.90000,1.10000,0.90000 /* [ bus_1071_115kv] */
  1072,'ODESSA 1 1  ',  18.0000,2,   1,   9,   1,1.01000, -15.8275,1.10000,0.90000,1.10000,0.90000 /* [ bus_1072_18kv] */
  1073,'ODESSA 1 2  ',  18.0000,2,   1,   9,   1,1.01000,  -9.3666,1.10000,0.90000,1.10000,0.90000 /* [ bus_1073_18kv] */
  1074,'ODESSA 1 3  ',  18.0000,2,   1,   9,   1,1.01000, -11.4336,1.10000,0.90000,1.10000,0.90000 /* [ bus_1074_18kv] */
  1075,'ODESSA 1 4  ',  18.0000,2,   1,   9,   1,1.01000, -14.2132,1.10000,0.90000,1.10000,0.90000 /* [ bus_1075_18kv] */
  1076,'ODESSA 1 5  ',  18.0000,1,   1,   9,   1,0.98534, -25.2281,1.10000,0.90000,1.10000,0.90000 /* [ bus_1076_18kv] */
  1077,'ODESSA 1 6  ',  18.0000,1,   1,   9,   1,0.98534, -25.2281,1.10000,0.90000,1.10000,0.90000 /* [ bus_1077_18kv] */
  1078,'ODESSA 1 7  ',  18.0000,2,   1,   9,   1,1.01000, -14.7338,1.10000,0.90000,1.10000,0.90000 /* [ bus_1078_18kv] */
  1079,'ODESSA 1 8  ', 500.0000,2,   1,   9,   1,1.01000, -42.7213,1.10000,0.90000,1.10000,0.90000 /* [ bus_1079_500kv] */
  1080,'ODESSA 1 9  ',  18.0000,2,   1,   9,   1,1.01000, -14.1583,1.10000,0.90000,1.10000,0.90000 /* [ bus_1080_18kv] */
  1081,'ODESSA 1 10 ', 230.0000,1,   1,   9,   1,1.01276, -22.0065,1.10000,0.90000,1.10000,0.90000 /* [ bus_1081_230kv] */
  1082,'FORT STOCK~3', 115.0000,2,   1,   9,   1,1.00000,  -8.3022,1.10000,0.90000,1.10000,0.90000 /* [ bus_1082_115kv] */
  1083,'FORT STOCK~4', 115.0000,1,   1,   9,   1,1.00836, -12.6430,1.10000,0.90000,1.10000,0.90000 /* [ bus_1083_115kv] */
  1084,'BIG SPRING~3', 115.0000,2,   1,   9,   1,1.04000, -20.7743,1.10000,0.90000,1.10000,0.90000 /* [ bus_1084_115kv] */
  1085,'KERMIT 0    ', 115.0000,1,   1,   9,   1,1.00752, -18.7977,1.10000,0.90000,1.10000,0.90000 /* [ bus_1085_115kv] */
  1086,'PECOS 0     ', 115.0000,1,   1,   9,   1,1.01367, -21.0173,1.10000,0.90000,1.10000,0.90000 /* [ bus_1086_115kv] */
  1087,'SHEFFIELD 0 ', 115.0000,1,   1,   9,   1,1.01639, -18.5065,1.10000,0.90000,1.10000,0.90000 /* [ bus_1087_115kv] */
  1088,'MCCAMEY 2 0 ', 115.0000,2,   1,   9,   1,1.00000, -15.1225,1.10000,0.90000,1.10000,0.90000 /* [ bus_1088_115kv] */
  1089,'LAMESA 0    ', 115.0000,1,   1,   9,   1,0.98307, -27.5581,1.10000,0.90000,1.10000,0.90000 /* [ bus_1089_115kv] */
  1090,'GOLDSMITH 0 ', 115.0000,2,   1,   9,   1,1.02000, -19.7632,1.10000,0.90000,1.10000,0.90000 /* [ bus_1090_115kv] */
  1091,'RALLS 2 0   ', 161.0000,1,   1,   9,   1,1.02422, -40.4355,1.10000,0.90000,1.10000,0.90000 /* [ bus_1091_161kv] */
  2001,'PARIS 3 0   ', 161.0000,1,   2,  11,   1,1.00365, -61.3302,1.10000,0.90000,1.10000,0.90000 /* [ bus_2001_161kv] */
  2002,'SAVOY 0     ', 500.0000,1,   2,  11,   1,1.01632, -62.4460,1.10000,0.90000,1.10000,0.90000 /* [ bus_2002_500kv] */
  2003,'SAVOY 1     ', 161.0000,1,   2,  11,   1,1.01530, -64.6447,1.10000,0.90000,1.10000,0.90000 /* [ bus_2003_161kv] */
  2004,'SAVOY 2     ',  13.8000,1,   2,  11,   1,1.01632, -62.4460,1.10000,0.90000,1.10000,0.90000 /* [ bus_2004_13.8kv] */
  2005,'SAVOY 3     ',  13.8000,1,   2,  11,   1,1.01632, -62.4460,1.10000,0.90000,1.10000,0.90000 /* [ bus_2005_13.8kv] */
  2006,'SAVOY 4     ',  13.8000,1,   2,  11,   1,1.01632, -62.4460,1.10000,0.90000,1.10000,0.90000 /* [ bus_2006_13.8kv] */
  2007,'HONEY GROV~1', 161.0000,1,   2,  11,   1,1.00484, -61.0715,1.10000,0.90000,1.10000,0.90000 /* [ bus_2007_161kv] */
  2008,'MEMPHIS 0   ', 161.0000,1,   2,  10,   1,1.00430, -41.4266,1.10000,0.90000,1.10000,0.90000 /* [ bus_2008_161kv] */
  2009,'IOWA PARK 0 ', 161.0000,1,   2,  11,   1,1.02471, -50.7992,1.10000,0.90000,1.10000,0.90000 /* [ bus_2009_161kv] */
  2010,'VERNON 2 0  ', 161.0000,1,   2,  10,   1,1.02946, -43.1091,1.10000,0.90000,1.10000,0.90000 /* [ bus_2010_161kv] */
  2011,'PANHANDLE ~2', 500.0000,1,   2,  10,   1,1.02793, -40.0532,1.10000,0.90000,1.10000,0.90000 /* [ bus_2011_500kv] */
  2012,'PANHANDLE ~3', 161.0000,1,   2,  10,   1,1.01073, -37.9682,1.10000,0.90000,1.10000,0.90000 /* [ bus_2012_161kv] */
  2013,'PANHANDLE ~4',  18.0000,2,   2,  10,   1,1.00000, -37.6002,1.10000,0.90000,1.10000,0.90000 /* [ bus_2013_18kv] */
  2014,'CHILDRESS 0 ', 161.0000,1,   2,  10,   1,1.00579, -42.2530,1.10000,0.90000,1.10000,0.90000 /* [ bus_2014_161kv] */
  2015,'FORESTBURG 0', 161.0000,1,   2,  11,   1,1.01543, -64.7030,1.10000,0.90000,1.10000,0.90000 /* [ bus_2015_161kv] */
  2016,'SHERMAN 3 0 ', 161.0000,1,   2,  11,   1,1.01603, -70.4779,1.10000,0.90000,1.10000,0.90000 /* [ bus_2016_161kv] */
  2017,'PANHANDLE ~7', 500.0000,1,   2,  10,   1,1.02989, -41.2829,1.10000,0.90000,1.10000,0.90000 /* [ bus_2017_500kv] */
  2018,'PANHANDLE ~8', 161.0000,1,   2,  10,   1,1.02103, -40.2400,1.10000,0.90000,1.10000,0.90000 /* [ bus_2018_161kv] */
  2019,'PANHANDLE ~9',  20.0000,1,   2,  10,   1,1.02989, -41.2829,1.10000,0.90000,1.10000,0.90000 /* [ bus_2019_20kv] */
  2020,'WICHITA F~12', 161.0000,1,   2,  11,   1,1.00187, -50.4712,1.10000,0.90000,1.10000,0.90000 /* [ bus_2020_161kv] */
  2021,'PARIS 2 0   ', 500.0000,1,   2,  11,   1,1.01499, -58.1405,1.10000,0.90000,1.10000,0.90000 /* [ bus_2021_500kv] */
  2022,'PARIS 2 1   ', 161.0000,1,   2,  11,   1,1.01166, -60.0094,1.10000,0.90000,1.10000,0.90000 /* [ bus_2022_161kv] */
  2023,'PARIS 2 2   ',  13.8000,2,   2,  11,   1,1.02000, -56.5740,1.10000,0.90000,1.10000,0.90000 /* [ bus_2023_13.8kv] */
  2024,'PARIS 2 3   ',  13.8000,2,   2,  11,   1,1.02000, -55.9075,1.10000,0.90000,1.10000,0.90000 /* [ bus_2024_13.8kv] */
  2025,'WICHITA F~10', 161.0000,1,   2,  11,   1,0.99999, -49.7773,1.10000,0.90000,1.10000,0.90000 /* [ bus_2025_161kv] */
  2026,'WHEELER 0   ', 161.0000,1,   2,  10,   1,1.01454, -39.0691,1.10000,0.90000,1.10000,0.90000 /* [ bus_2026_161kv] */
  2027,'DEPORT 0    ', 161.0000,1,   2,  11,   1,1.00433, -61.7383,1.10000,0.90000,1.10000,0.90000 /* [ bus_2027_161kv] */
  2028,'WICHITA FA~9', 161.0000,1,   2,  11,   1,1.00286, -52.3994,1.10000,0.90000,1.10000,0.90000 /* [ bus_2028_161kv] */
  2029,'SILVERTON 0 ', 161.0000,1,   2,  10,   1,1.01395, -41.8067,1.10000,0.90000,1.10000,0.90000 /* [ bus_2029_161kv] */
  2030,'BONHAM 0    ', 161.0000,1,   2,  11,   1,0.99304, -65.0609,1.10000,0.90000,1.10000,0.90000 /* [ bus_2030_161kv] */
  2031,'MATADOR 0   ', 161.0000,1,   2,  10,   1,1.02516, -37.0082,1.10000,0.90000,1.10000,0.90000 /* [ bus_2031_161kv] */
  2032,'ARTHUR CIT~1', 161.0000,1,   2,  11,   1,1.00660, -60.5010,1.10000,0.90000,1.10000,0.90000 /* [ bus_2032_161kv] */
  2033,'LEONARD 0   ', 161.0000,1,   2,  11,   1,0.99649, -66.4099,1.10000,0.90000,1.10000,0.90000 /* [ bus_2033_161kv] */
  2034,'GORDONVILL~1', 161.0000,1,   2,  11,   1,1.01353, -69.8828,1.10000,0.90000,1.10000,0.90000 /* [ bus_2034_161kv] */
  2035,'KNOX CITY 0 ', 161.0000,1,   2,  10,   1,1.02445, -36.9209,1.10000,0.90000,1.10000,0.90000 /* [ bus_2035_161kv] */
  2036,'WICHITA F~13', 161.0000,1,   2,  11,   1,1.00478, -50.1640,1.10000,0.90000,1.10000,0.90000 /* [ bus_2036_161kv] */
  2037,'LINDSAY 0   ', 161.0000,1,   2,  11,   1,1.02607, -64.9559,1.10000,0.90000,1.10000,0.90000 /* [ bus_2037_161kv] */
  2038,'ECTOR 0     ', 161.0000,1,   2,  11,   1,1.01235, -65.1074,1.10000,0.90000,1.10000,0.90000 /* [ bus_2038_161kv] */
  2039,'SUNSET 0    ', 161.0000,1,   2,  11,   1,1.00029, -62.3230,1.10000,0.90000,1.10000,0.90000 /* [ bus_2039_161kv] */
  2040,'CLARKSVILL~1', 161.0000,1,   2,  11,   1,1.00919, -60.6794,1.10000,0.90000,1.10000,0.90000 /* [ bus_2040_161kv] */
  2041,'PANHANDLE ~5', 161.0000,1,   2,  10,   1,1.01118, -35.6729,1.10000,0.90000,1.10000,0.90000 /* [ bus_2041_161kv] */
  2042,'PANHANDLE ~6',  18.0000,2,   2,  10,   1,1.01000, -33.0420,1.10000,0.90000,1.10000,0.90000 /* [ bus_2042_18kv] */
  2043,'SADLER 0    ', 161.0000,1,   2,  11,   1,1.01442, -70.1572,1.10000,0.90000,1.10000,0.90000 /* [ bus_2043_161kv] */
  2044,'WHITESBORO 0', 161.0000,1,   2,  11,   1,1.02155, -66.2474,1.10000,0.90000,1.10000,0.90000 /* [ bus_2044_161kv] */
  2045,'SHEPPARD A~1', 161.0000,1,   2,  11,   1,1.00153, -50.9203,1.10000,0.90000,1.10000,0.90000 /* [ bus_2045_161kv] */
  2046,'POTTSBORO 0 ', 161.0000,1,   2,  11,   1,1.01296, -69.5315,1.10000,0.90000,1.10000,0.90000 /* [ bus_2046_161kv] */
  2047,'BELLS 0     ', 161.0000,1,   2,  11,   1,1.01423, -65.5204,1.10000,0.90000,1.10000,0.90000 /* [ bus_2047_161kv] */
  2048,'CROSBYTON 0 ', 161.0000,1,   2,  10,   1,1.02718, -39.8299,1.10000,0.90000,1.10000,0.90000 /* [ bus_2048_161kv] */
  2049,'ELECTRA 0   ', 161.0000,1,   2,  10,   1,1.02204, -46.8574,1.10000,0.90000,1.10000,0.90000 /* [ bus_2049_161kv] */
  2050,'PATTONVILL~1', 161.0000,1,   2,  11,   1,0.99790, -64.3752,1.10000,0.90000,1.10000,0.90000 /* [ bus_2050_161kv] */
  2051,'HENRIETTA 0 ', 161.0000,1,   2,  11,   1,1.00103, -57.6890,1.10000,0.90000,1.10000,0.90000 /* [ bus_2051_161kv] */
  2052,'PANHANDLE~13', 161.0000,1,   2,  10,   1,1.00321, -40.3361,1.10000,0.90000,1.10000,0.90000 /* [ bus_2052_161kv] */
  2053,'BOWIE 0     ', 161.0000,1,   2,  11,   1,0.99707, -60.4349,1.10000,0.90000,1.10000,0.90000 /* [ bus_2053_161kv] */
  2054,'WICHITA FA~1', 500.0000,1,   2,  11,   1,1.00417, -48.9319,1.10000,0.90000,1.10000,0.90000 /* [ bus_2054_500kv] */
  2055,'WICHITA FA~2', 161.0000,1,   2,  11,   1,1.00354, -49.6700,1.10000,0.90000,1.10000,0.90000 /* [ bus_2055_161kv] */
  2056,'WICHITA FA~3',  18.0000,1,   2,  11,   1,1.00417, -48.9319,1.10000,0.90000,1.10000,0.90000 /* [ bus_2056_18kv] */
  2057,'WICHITA FA~4',  18.0000,2,   2,  11,   1,0.99000, -45.7361,1.10000,0.90000,1.10000,0.90000 /* [ bus_2057_18kv] */
  2058,'WHITE DEER 0', 161.0000,1,   2,  10,   1,1.00556, -35.1106,1.10000,0.90000,1.10000,0.90000 /* [ bus_2058_161kv] */
  2059,'WHITE DEER 1',  13.8000,2,   2,  10,   1,1.00000, -31.6396,1.10000,0.90000,1.10000,0.90000 /* [ bus_2059_13.8kv] */
  2060,'ROXTON 0    ', 161.0000,1,   2,  11,   1,1.00077, -63.1355,1.10000,0.90000,1.10000,0.90000 /* [ bus_2060_161kv] */
  2061,'VERNON 1 0  ', 161.0000,1,   2,  10,   1,1.02457, -43.5807,1.10000,0.90000,1.10000,0.90000 /* [ bus_2061_161kv] */
  2062,'VERNON 1 1  ',  18.0000,2,   2,  10,   1,1.02000, -41.2840,1.10000,0.90000,1.10000,0.90000 /* [ bus_2062_18kv] */
  2063,'DENISON 2 0 ', 161.0000,1,   2,  11,   1,1.01394, -68.9338,1.10000,0.90000,1.10000,0.90000 /* [ bus_2063_161kv] */
  2064,'SUMNER 0    ', 161.0000,1,   2,  11,   1,1.00561, -61.5628,1.10000,0.90000,1.10000,0.90000 /* [ bus_2064_161kv] */
  2065,'GAINESVILL~1', 161.0000,1,   2,  11,   1,1.02958, -66.6152,1.10000,0.90000,1.10000,0.90000 /* [ bus_2065_161kv] */
  2066,'ASPERMONT 0 ', 161.0000,1,   2,  10,   1,1.02381, -33.8642,1.10000,0.90000,1.10000,0.90000 /* [ bus_2066_161kv] */
  2067,'WICHITA F~11', 161.0000,1,   2,  11,   1,0.99786, -49.6268,1.10000,0.90000,1.10000,0.90000 /* [ bus_2067_161kv] */
  2068,'WINDTHORST 0', 161.0000,1,   2,  11,   1,1.00260, -47.3099,1.10000,0.90000,1.10000,0.90000 /* [ bus_2068_161kv] */
  2069,'HOWE 0      ', 161.0000,1,   2,  11,   1,1.03078, -69.6044,1.10000,0.90000,1.10000,0.90000 /* [ bus_2069_161kv] */
  2070,'ARCHER 2 0  ', 161.0000,1,   2,  11,   1,1.00445, -46.7861,1.10000,0.90000,1.10000,0.90000 /* [ bus_2070_161kv] */
  2071,'ARCHER 2 1  ',  18.0000,2,   2,  11,   1,1.00000, -43.1157,1.10000,0.90000,1.10000,0.90000 /* [ bus_2071_18kv] */
  2072,'COLLINSVIL~1', 161.0000,1,   2,  11,   1,1.02419, -67.7985,1.10000,0.90000,1.10000,0.90000 /* [ bus_2072_161kv] */
  2073,'JAYTON 0    ', 161.0000,1,   2,  10,   1,1.02513, -31.2536,1.10000,0.90000,1.10000,0.90000 /* [ bus_2073_161kv] */
  2074,'JAYTON 1    ', 115.0000,1,   2,  10,   1,1.01276, -29.1565,1.10000,0.90000,1.10000,0.90000 /* [ bus_2074_115kv] */
  2075,'JAYTON 2    ', 115.0000,1,   2,  10,   1,1.01276, -29.1565,1.10000,0.90000,1.10000,0.90000 /* [ bus_2075_115kv] */
  2076,'JAYTON 3    ',  24.0000,2,   2,  10,   1,1.04000, -30.3974,1.10000,0.90000,1.10000,0.90000 /* [ bus_2076_24kv] */
  2077,'MUENSTER 1 0', 161.0000,1,   2,  11,   1,1.02603, -62.8577,1.10000,0.90000,1.10000,0.90000 /* [ bus_2077_161kv] */
  2078,'MUENSTER 1 1',  13.8000,2,   2,  11,   1,1.02000, -59.5486,1.10000,0.90000,1.10000,0.90000 /* [ bus_2078_13.8kv] */
  2079,'PADUCAH 0   ', 161.0000,1,   2,  10,   1,1.02975, -41.9174,1.10000,0.90000,1.10000,0.90000 /* [ bus_2079_161kv] */
  2080,'NOCONA 0    ', 161.0000,1,   2,  11,   1,1.00549, -60.1722,1.10000,0.90000,1.10000,0.90000 /* [ bus_2080_161kv] */
  2081,'DODD CITY 0 ', 161.0000,1,   2,  11,   1,1.00703, -65.8957,1.10000,0.90000,1.10000,0.90000 /* [ bus_2081_161kv] */
  2082,'WICHITA FA~5', 161.0000,1,   2,  11,   1,1.00830, -50.4792,1.10000,0.90000,1.10000,0.90000 /* [ bus_2082_161kv] */
  2083,'WICHITA FA~6',  20.0000,2,   2,  11,   1,1.02000, -48.9027,1.10000,0.90000,1.10000,0.90000 /* [ bus_2083_20kv] */
  2084,'WICHITA FA~7',  20.0000,1,   2,  11,   1,1.00830, -50.4792,1.10000,0.90000,1.10000,0.90000 /* [ bus_2084_20kv] */
  2085,'WICHITA FA~8',  20.0000,1,   2,  11,   1,1.00830, -50.4792,1.10000,0.90000,1.10000,0.90000 /* [ bus_2085_20kv] */
  2086,'MONTAGUE 0  ', 161.0000,1,   2,  11,   1,1.00239, -61.5210,1.10000,0.90000,1.10000,0.90000 /* [ bus_2086_161kv] */
  2087,'SPUR 0      ', 161.0000,1,   2,  10,   1,1.02423, -34.1924,1.10000,0.90000,1.10000,0.90000 /* [ bus_2087_161kv] */
  2088,'ARCHER 1 0  ', 161.0000,1,   2,  11,   1,1.00345, -46.9711,1.10000,0.90000,1.10000,0.90000 /* [ bus_2088_161kv] */
  2089,'ARCHER 1 1  ',  24.0000,2,   2,  11,   1,1.00000, -43.3763,1.10000,0.90000,1.10000,0.90000 /* [ bus_2089_24kv] */
  2090,'ANNONA 0    ', 161.0000,1,   2,  11,   1,1.00508, -62.3169,1.10000,0.90000,1.10000,0.90000 /* [ bus_2090_161kv] */
  2091,'SEYMOUR 0   ', 161.0000,1,   2,  10,   1,1.02562, -40.5023,1.10000,0.90000,1.10000,0.90000 /* [ bus_2091_161kv] */
  2092,'DENISON 1 0 ', 161.0000,1,   2,  11,   1,1.01253, -67.3032,1.10000,0.90000,1.10000,0.90000 /* [ bus_2092_161kv] */
  2093,'PANHANDLE~10', 161.0000,1,   2,  10,   1,1.01592, -39.0476,1.10000,0.90000,1.10000,0.90000 /* [ bus_2093_161kv] */
  2094,'PANHANDLE~11',  13.8000,1,   2,  10,   1,1.01592, -39.0476,1.10000,0.90000,1.10000,0.90000 /* [ bus_2094_13.8kv] */
  2095,'PANHANDLE~12',  13.8000,1,   2,  10,   1,1.01592, -39.0476,1.10000,0.90000,1.10000,0.90000 /* [ bus_2095_13.8kv] */
  2096,'RALLS 1 0   ', 500.0000,1,   2,  10,   1,1.02587, -40.2133,1.10000,0.90000,1.10000,0.90000 /* [ bus_2096_500kv] */
  2097,'RALLS 1 1   ', 230.0000,1,   2,  10,   1,1.02264, -39.1226,1.10000,0.90000,1.10000,0.90000 /* [ bus_2097_230kv] */
  2098,'RALLS 1 2   ', 161.0000,1,   2,  10,   1,1.02471, -40.2289,1.10000,0.90000,1.10000,0.90000 /* [ bus_2098_161kv] */
  2099,'RALLS 1 3   ',  18.0000,2,   2,  10,   1,1.02000, -40.0676,1.10000,0.90000,1.10000,0.90000 /* [ bus_2099_18kv] */
  2100,'RALLS 1 4   ',  18.0000,2,   2,  10,   1,1.02000, -37.5980,1.10000,0.90000,1.10000,0.90000 /* [ bus_2100_18kv] */
  2101,'SHERMAN 1 0 ', 500.0000,1,   2,  11,   1,1.01665, -63.3814,1.10000,0.90000,1.10000,0.90000 /* [ bus_2101_500kv] */
  2102,'SHERMAN 1 1 ', 161.0000,1,   2,  11,   1,1.01754, -64.7798,1.10000,0.90000,1.10000,0.90000 /* [ bus_2102_161kv] */
  2103,'SHERMAN 1 2 ',  20.0000,1,   2,  11,   1,1.01665, -63.3814,1.10000,0.90000,1.10000,0.90000 /* [ bus_2103_20kv] */
  2104,'SHERMAN 1 3 ',  20.0000,1,   2,  11,   1,1.01665, -63.3814,1.10000,0.90000,1.10000,0.90000 /* [ bus_2104_20kv] */
  2105,'SHERMAN 1 4 ',  20.0000,1,   2,  11,   1,1.01665, -63.3814,1.10000,0.90000,1.10000,0.90000 /* [ bus_2105_20kv] */
  2106,'WHITEWRIGH~1', 161.0000,1,   2,  11,   1,0.99533, -66.9754,1.10000,0.90000,1.10000,0.90000 /* [ bus_2106_161kv] */
  2107,'SHERMAN 2 0 ', 161.0000,1,   2,  11,   1,1.01235, -65.5836,1.10000,0.90000,1.10000,0.90000 /* [ bus_2107_161kv] */
  2108,'ROCHESTER 0 ', 161.0000,1,   2,  10,   1,1.00762, -47.3280,1.10000,0.90000,1.10000,0.90000 /* [ bus_2108_161kv] */
  2109,'BURKBURNET~1', 161.0000,1,   2,  11,   1,1.01286, -51.7653,1.10000,0.90000,1.10000,0.90000 /* [ bus_2109_161kv] */
...
0 / END OF BUS DATA, BEGIN LOAD DATA
@!   I,'ID',STAT,AREA,ZONE,      PL,        QL,        IP,        IQ,        YP,        YQ, OWNER,SCALE,INTRPT,  DGENP,     DGENQ,DGENF,'  LOAD TYPE ',               'N A M E'
  1001,'1 ',   1,   1,   9,    20.781,     5.888,     0.000,     0.000,     0.000,     0.000,   1,    1,  0,     0.000,     0.000,    0,'            ','                                        ' /* [ load_1001_1_115kv, load_ODESSA_2_0_1001_1_115kv ] */
  1002,'1 ',   1,   1,   9,    15.414,     4.367,     0.000,     0.000,     0.000,     0.000,   1,    1,  0,     0.000,     0.000,    0,'            ','                                        ' /* [ load_1002_1_115kv, load_PRESIDIO_2_0_1002_1_115kv ] */
  1007,'1 ',   1,   1,   9,     7.008,     1.986,     0.000,     0.000,     0.000,     0.000,   1,    1,  0,     0.000,     0.000,    0,'            ','                                        ' /* [ load_1007_1_115kv, load_VAN_HORN_0_1007_1_115kv ] */
  1012,'1 ',   1,   1,   9,     2.985,     0.846,     0.000,     0.000,     0.000,     0.000,   1,    1,  0,     0.000,     0.000,    0,'            ','                                        ' /* [ load_1012_1_115kv, load_SANDERSON_0_1012_1_115kv ] */
  1013,'1 ',   1,   1,   9,     0.510,     0.144,     0.000,     0.000,     0.000,     0.000,   1,    1,  0,     0.000,     0.000,    0,'            ','                                        ' /* [ load_1013_1_115kv, load_MONAHANS_2_0_1013_1_115kv ] */
  1013,'2 ',   1,   1,   9,     1.518,     0.430,     0.000,     0.000,     0.000,     0.000,   1,    1,  0,     0.000,     0.000,    0,'            ','                                        ' /* [ load_1013_2_115kv, load_MONAHANS_2_0_1013_2_115kv ] */
  1013,'3 ',   1,   1,   9,    27.198,     7.706,     0.000,     0.000,     0.000,     0.000,   1,    1,  0,     0.000,     0.000,    0,'            ','                                        ' /* [ load_1013_3_115kv, load_MONAHANS_2_0_1013_3_115kv ] */
  1014,'1 ',   1,   1,   9,     2.220,     0.629,     0.000,     0.000,     0.000,     0.000,   1,    1,  0,     0.000,     0.000,    0,'            ','                                        ' /* [ load_1014_1_115kv, load_GRANDFALLS_0_1014_1_115kv ] */
  1015,'1 ',   1,   1,   9,     7.509,     2.128,     0.000,     0.000,     0.000,     0.000,   1,    1,  0,     0.000,     0.000,    0,'            ','                                        ' /* [ load_1015_1_115kv, load_MARFA_0_1015_1_115kv ] */
  1016,'1 ',   1,   1,   9,     2.889,     0.819,     0.000,     0.000,     0.000,     0.000,   1,    1,  0,     0.000,     0.000,    0,'            ','                                        ' /* [ load_1016_1_115kv, load_GARDEN_CIT_1_1016_1_115kv ] */
  1017,'1 ',   1,   1,   9,    18.345,     5.198,     0.000,     0.000,     0.000,     0.000,   1,    1,  0,     0.000,     0.000,    0,'            ','                                        ' /* [ load_1017_1_115kv, load_ODESSA_4_0_1017_1_115kv ] */
  1018,'1 ',   1,   1,   9,     0.069,     0.020,     0.000,     0.000,     0.000,     0.000,   1,    1,  0,     0.000,     0.000,    0,'            ','                                        ' /* [ load_1018_1_115kv, load_NOTREES_0_1018_1_115kv ] */
  1019,'1 ',   1,   1,   9,    61.776,    17.503,     0.000,     0.000,     0.000,     0.000,   1,    1,  0,     0.000,     0.000,    0,'            ','                                        ' /* [ load_1019_1_115kv, load_MIDLAND_4_0_1019_1_115kv ] */
  1024,'1 ',   1,   1,   9,    63.039,    17.861,     0.000,     0.000,     0.000,     0.000,   1,    1,  0,     0.000,     0.000,    0,'            ','                                        ' /* [ load_1024_1_115kv, load_ODESSA_6_0_1024_1_115kv ] */
  1027,'1 ',   1,   1,   9,     0.603,     0.171,     0.000,     0.000,     0.000,     0.000,   1,    1,  0,     0.000,     0.000,    0,'            ','                                        ' /* [ load_1027_1_115kv, load_MIDLAND_2_0_1027_1_115kv ] */
  1027,'2 ',   1,   1,   9,   100.608,    28.506,     0.000,     0.000,     0.000,     0.000,   1,    1,  0,     0.000,     0.000,    0,'            ','                                        ' /* [ load_1027_2_115kv, load_MIDLAND_2_0_1027_2_115kv ] */
  1028,'1 ',   1,   1,   9,     1.425,     0.404,     0.000,     0.000,     0.000,     0.000,   1,    1,  0,     0.000,     0.000,    0,'            ','                                        ' /* [ load_1028_1_115kv, load_COAHOMA_0_1028_1_115kv ] */
  1028,'2 ',   1,   1,   9,     0.753,     0.213,     0.000,     0.000,     0.000,     0.000,   1,    1,  0,     0.000,     0.000,    0,'            ','                                        ' /* [ load_1028_2_115kv, load_COAHOMA_0_1028_2_115kv ] */
  1028,'3 ',   1,   1,   9,     4.899,     1.388,     0.000,     0.000,     0.000,     0.000,   1,    1,  0,     0.000,     0.000,    0,'            ','                                        ' /* [ load_1028_3_115kv, load_COAHOMA_0_1028_3_115kv ] */
  1028,'4 ',   1,   1,   9,     2.937,     0.832,     0.000,     0.000,     0.000,     0.000,   1,    1,  0,     0.000,     0.000,    0,'            ','                                        ' /* [ load_1028_4_115kv, load_COAHOMA_0_1028_4_115kv ] */
  1029,'1 ',   1,   1,   9,    83.184,    23.569,     0.000,     0.000,     0.000,     0.000,   1,    1,  0,     0.000,     0.000,    0,'            ','                                        ' /* [ load_1029_1_115kv, load_MIDLAND_3_0_1029_1_115kv ] */
  1030,'1 ',   1,   1,   9,    23.046,     6.530,     0.000,     0.000,     0.000,     0.000,   1,    1,  0,     0.000,     0.000,    0,'            ','                                        ' /* [ load_1030_1_115kv, load_ALPINE_0_1030_1_115kv ] */
  1030,'2 ',   1,   1,   9,     1.581,     0.448,     0.000,     0.000,     0.000,     0.000,   1,    1,  0,     0.000,     0.000,    0,'            ','                                        ' /* [ load_1030_2_115kv, load_ALPINE_0_1030_2_115kv ] */
  1031,'1 ',   1,   1,   9,     9.246,     2.620,     0.000,     0.000,     0.000,     0.000,   1,    1,  0,     0.000,     0.000,    0,'            ','                                        ' /* [ load_1031_1_115kv, load_FORT_DAVIS_0_1031_1_115kv ] */
  1036,'1 ',   1,   1,   9,     1.017,     0.288,     0.000,     0.000,     0.000,     0.000,   1,    1,  0,     0.000,     0.000,    0,'            ','                                        ' /* [ load_1036_1_115kv, load_CRANE_0_1036_1_115kv ] */
  1036,'2 ',   1,   1,   9,    12.579,     3.564,     0.000,     0.000,     0.000,     0.000,   1,    1,  0,     0.000,     0.000,    0,'            ','                                        ' /* [ load_1036_2_115kv, load_CRANE_0_1036_2_115kv ] */
  1037,'1 ',   1,   1,   9,   102.237,    28.967,     0.000,     0.000,     0.000,     0.000,   1,    1,  0,     0.000,     0.000,    0,'            ','                                        ' /* [ load_1037_1_115kv, load_ODESSA_5_0_1037_1_115kv ] */
  1040,'1 ',   1,   1,   9,    44.358,    12.568,     0.000,     0.000,     0.000,     0.000,   1,    1,  0,     0.000,     0.000,    0,'            ','                                        ' /* [ load_1040_1_115kv, load_ANDREWS_0_1040_1_115kv ] */
  1044,'1 ',   1,   1,   9,     4.512,     1.278,     0.000,     0.000,     0.000,     0.000,   1,    1,  0,     0.000,     0.000,    0,'            ','                                        ' /* [ load_1044_1_115kv, load_BIG_LAKE_0_1044_1_115kv ] */
  1044,'2 ',   1,   1,   9,    10.170,     2.881,     0.000,     0.000,     0.000,     0.000,   1,    1,  0,     0.000,     0.000,    0,'            ','                                        ' /* [ load_1044_2_115kv, load_BIG_LAKE_0_1044_2_115kv ] */
  1045,'1 ',   1,   1,   9,    98.562,    27.926,     0.000,     0.000,     0.000,     0.000,   1,    1,  0,     0.000,     0.000,    0,'            ','                                        ' /* [ load_1045_1_115kv, load_MIDLAND_5_0_1045_1_115kv ] */
  1046,'1 ',   1,   1,   9,     0.006,     0.002,     0.000,     0.000,     0.000,     0.000,   1,    1,  0,     0.000,     0.000,    0,'            ','                                        ' /* [ load_1046_1_115kv, load_OZONA_0_1046_1_115kv ] */
  1046,'2 ',   1,   1,   9,    11.079,     3.139,     0.000,     0.000,     0.000,     0.000,   1,    1,  0,     0.000,     0.000,    0,'            ','                                        ' /* [ load_1046_2_115kv, load_OZONA_0_1046_2_115kv ] */
  1054,'1 ',   1,   1,   9,     1.776,     0.503,     0.000,     0.000,     0.000,     0.000,   1,    1,  0,     0.000,     0.000,    0,'            ','                                        ' /* [ load_1054_1_115kv, load_STANTON_0_1054_1_115kv ] */
  1054,'2 ',   1,   1,   9,     0.519,     0.147,     0.000,     0.000,     0.000,     0.000,   1,    1,  0,     0.000,     0.000,    0,'            ','                                        ' /* [ load_1054_2_115kv, load_STANTON_0_1054_2_115kv ] */
  1054,'3 ',   1,   1,   9,    12.693,     3.596,     0.000,     0.000,     0.000,     0.000,   1,    1,  0,     0.000,     0.000,    0,'            ','                                        ' /* [ load_1054_3_115kv, load_STANTON_0_1054_3_115kv ] */
  1055,'1 ',   1,   1,   9,     3.978,     1.127,     0.000,     0.000,     0.000,     0.000,   1,    1,  0,     0.000,     0.000,    0,'            ','                                        ' /* [ load_1055_1_115kv, load_ODONNELL_0_1055_1_115kv ] */
  1058,'1 ',   1,   1,   9,     4.086,     1.158,     0.000,     0.000,     0.000,     0.000,   1,    1,  0,     0.000,     0.000,    0,'            ','                                        ' /* [ load_1058_1_115kv, load_IRAAN_3_0_1058_1_115kv ] */
  1058,'2 ',   1,   1,   9,     9.369,     2.655,     0.000,     0.000,     0.000,     0.000,   1,    1,  0,     0.000,     0.000,    0,'            ','                                        ' /* [ load_1058_2_115kv, load_IRAAN_3_0_1058_2_115kv ] */
  1064,'1 ',   1,   1,   9,     6.591,     1.867,     0.000,     0.000,     0.000,     0.000,   1,    1,  0,     0.000,     0.000,    0,'            ','                                        ' /* [ load_1064_1_115kv, load_ODESSA_3_0_1064_1_115kv ] */
  1064,'2 ',   1,   1,   9,   117.168,    33.198,     0.000,     0.000,     0.000,     0.000,   1,    1,  0,     0.000,     0.000,    0,'            ','                                        ' /* [ load_1064_2_115kv, load_ODESSA_3_0_1064_2_115kv ] */
  1067,'1 ',   1,   1,   9,   101.550,    28.773,     0.000,     0.000,     0.000,     0.000,   1,    1,  0,     0.000,     0.000,    0,'            ','                                        ' /* [ load_1067_1_115kv, load_BIG_SPRIN_13_1067_1_115kv ] */
  1068,'1 ',   1,   1,   9,     0.690,     0.195,     0.000,     0.000,     0.000,     0.000,   1,    1,  0,     0.000,     0.000,    0,'            ','                                        ' /* [ load_1068_1_115kv, load_MIDLAND_1_0_1068_1_115kv ] */
  1068,'2 ',   1,   1,   9,    58.713,    16.635,     0.000,     0.000,     0.000,     0.000,   1,    1,  0,     0.000,     0.000,    0,'            ','                                        ' /* [ load_1068_2_115kv, load_MIDLAND_1_0_1068_2_115kv ] */
  1071,'1 ',   1,   1,   9,    91.464,    25.915,     0.000,     0.000,     0.000,     0.000,   1,    1,  0,     0.000,     0.000,    0,'            ','                                        ' /* [ load_1071_1_115kv, load_ODESSA_1_0_1071_1_115kv ] */
  1083,'1 ',   1,   1,   9,    39.945,    11.318,     0.000,     0.000,     0.000,     0.000,   1,    1,  0,     0.000,     0.000,    0,'            ','                                        ' /* [ load_1083_1_115kv, load_FORT_STOCK_4_1083_1_115kv ] */
  1085,'1 ',   1,   1,   9,     2.922,     0.828,     0.000,     0.000,     0.000,     0.000,   1,    1,  0,     0.000,     0.000,    0,'            ','                                        ' /* [ load_1085_1_115kv, load_KERMIT_0_1085_1_115kv ] */
  1085,'2 ',   1,   1,   9,    18.375,     5.206,     0.000,     0.000,     0.000,     0.000,   1,    1,  0,     0.000,     0.000,    0,'            ','                                        ' /* [ load_1085_2_115kv, load_KERMIT_0_1085_2_115kv ] */
  1086,'1 ',   1,   1,   9,    39.672,    11.240,     0.000,     0.000,     0.000,     0.000,   1,    1,  0,     0.000,     0.000,    0,'            ','                                        ' /* [ load_1086_1_115kv, load_PECOS_0_1086_1_115kv ] */
  1087,'1 ',   1,   1,   9,     0.909,     0.258,     0.000,     0.000,     0.000,     0.000,   1,    1,  0,     0.000,     0.000,    0,'            ','                                        ' /* [ load_1087_1_115kv, load_SHEFFIELD_0_1087_1_115kv ] */
  1089,'1 ',   1,   1,   9,     0.831,     0.235,     0.000,     0.000,     0.000,     0.000,   1,    1,  0,     0.000,     0.000,    0,'            ','                                        ' /* [ load_1089_1_115kv, load_LAMESA_0_1089_1_115kv ] */
  1089,'2 ',   1,   1,   9,    39.774,    11.269,     0.000,     0.000,     0.000,     0.000,   1,    1,  0,     0.000,     0.000,    0,'            ','                                        ' /* [ load_1089_2_115kv, load_LAMESA_0_1089_2_115kv ] */
  1091,'1 ',   1,   1,   9,     4.713,     1.335,     0.000,     0.000,     0.000,     0.000,   1,    1,  0,     0.000,     0.000,    0,'            ','                                        ' /* [ load_1091_1_161kv, load_RALLS_2_0_1091_1_161kv ] */
  1091,'2 ',   1,   1,   9,     6.909,     1.958,     0.000,     0.000,     0.000,     0.000,   1,    1,  0,     0.000,     0.000,    0,'            ','                                        ' /* [ load_1091_2_161kv, load_RALLS_2_0_1091_2_161kv ] */
  2001,'1 ',   1,   2,  11,    14.307,     4.054,     0.000,     0.000,     0.000,     0.000,   1,    1,  0,     0.000,     0.000,    0,'            ','                                        ' /* [ load_2001_1_161kv, load_PARIS_3_0_2001_1_161kv ] */
  2001,'2 ',   1,   2,  11,    34.050,     9.647,     0.000,     0.000,     0.000,     0.000,   1,    1,  0,     0.000,     0.000,    0,'            ','                                        ' /* [ load_2001_2_161kv, load_PARIS_3_0_2001_2_161kv ] */
  2007,'1 ',   1,   2,  11,     9.540,     2.703,     0.000,     0.000,     0.000,     0.000,   1,    1,  0,     0.000,     0.000,    0,'            ','                                        ' /* [ load_2007_1_161kv, load_HONEY_GROV_1_2007_1_161kv ] */
  2008,'1 ',   1,   2,  10,     8.061,     2.284,     0.000,     0.000,     0.000,     0.000,   1,    1,  0,     0.000,     0.000,    0,'            ','                                        ' /* [ load_2008_1_161kv, load_MEMPHIS_0_2008_1_161kv ] */
  2009,'1 ',   1,   2,  11,    39.135,    11.088,     0.000,     0.000,     0.000,     0.000,   1,    1,  0,     0.000,     0.000,    0,'            ','                                        ' /* [ load_2009_1_161kv, load_IOWA_PARK_0_2009_1_161kv ] */
  2010,'1 ',   1,   2,  10,     5.106,     1.447,     0.000,     0.000,     0.000,     0.000,   1,    1,  0,     0.000,     0.000,    0,'            ','                                        ' /* [ load_2010_1_161kv, load_VERNON_2_0_2010_1_161kv ] */
  2010,'2 ',   1,   2,  10,     9.606,     2.722,     0.000,     0.000,     0.000,     0.000,   1,    1,  0,     0.000,     0.000,    0,'            ','                                        ' /* [ load_2010_2_161kv, load_VERNON_2_0_2010_2_161kv ] */
  2010,'3 ',   1,   2,  10,     2.928,     0.830,     0.000,     0.000,     0.000,     0.000,   1,    1,  0,     0.000,     0.000,    0,'            ','                                        ' /* [ load_2010_3_161kv, load_VERNON_2_0_2010_3_161kv ] */
  2010,'4 ',   1,   2,  10,     0.192,     0.054,     0.000,     0.000,     0.000,     0.000,   1,    1,  0,     0.000,     0.000,    0,'            ','                                        ' /* [ load_2010_4_161kv, load_VERNON_2_0_2010_4_161kv ] */
  2010,'5 ',   1,   2,  10,    38.973,    11.042,     0.000,     0.000,     0.000,     0.000,   1,    1,  0,     0.000,     0.000,    0,'            ','                                        ' /* [ load_2010_5_161kv, load_VERNON_2_0_2010_5_161kv ] */
  2014,'1 ',   1,   2,  10,     3.624,     1.027,     0.000,     0.000,     0.000,     0.000,   1,    1,  0,     0.000,     0.000,    0,'            ','                                        ' /* [ load_2014_1_161kv, load_CHILDRESS_0_2014_1_161kv ] */
  2014,'2 ',   1,   2,  10,    21.804,     6.178,     0.000,     0.000,     0.000,     0.000,   1,    1,  0,     0.000,     0.000,    0,'            ','                                        ' /* [ load_2014_2_161kv, load_CHILDRESS_0_2014_2_161kv ] */
  2015,'1 ',   1,   2,  11,     4.686,     1.328,     0.000,     0.000,     0.000,     0.000,   1,    1,  0,     0.000,     0.000,    0,'            ','                                        ' /* [ load_2015_1_161kv, load_FORESTBURG_0_2015_1_161kv ] */
  2016,'1 ',   1,   2,  11,    69.267,    19.626,     0.000,     0.000,     0.000,     0.000,   1,    1,  0,     0.000,     0.000,    0,'            ','                                        ' /* [ load_2016_1_161kv, load_SHERMAN_3_0_2016_1_161kv ] */
  2020,'1 ',   1,   2,  11,    47.973,    13.592,     0.000,     0.000,     0.000,     0.000,   1,    1,  0,     0.000,     0.000,    0,'            ','                                        ' /* [ load_2020_1_161kv, load_WICHITA_F_12_2020_1_161kv ] */
  2022,'1 ',   1,   2,  11,    11.565,     3.277,     0.000,     0.000,     0.000,     0.000,   1,    1,  0,     0.000,     0.000,    0,'            ','                                        ' /* [ load_2022_1_161kv, load_PARIS_2_1_2022_1_161kv ] */
  2025,'1 ',   1,   2,  11,    39.618,    11.225,     0.000,     0.000,     0.000,     0.000,   1,    1,  0,     0.000,     0.000,    0,'            ','                                        ' /* [ load_2025_1_161kv, load_WICHITA_F_10_2025_1_161kv ] */
  2026,'1 ',   1,   2,  10,     2.511,     0.711,     0.000,     0.000,     0.000,     0.000,   1,    1,  0,     0.000,     0.000,    0,'            ','                                        ' /* [ load_2026_1_161kv, load_WHEELER_0_2026_1_161kv ] */
  2026,'2 ',   1,   2,  10,     0.948,     0.269,     0.000,     0.000,     0.000,     0.000,   1,    1,  0,     0.000,     0.000,    0,'            ','                                        ' /* [ load_2026_2_161kv, load_WHEELER_0_2026_2_161kv ] */
  2026,'3 ',   1,   2,  10,     7.173,     2.032,     0.000,     0.000,     0.000,     0.000,   1,    1,  0,     0.000,     0.000,    0,'            ','                                        ' /* [ load_2026_3_161kv, load_WHEELER_0_2026_3_161kv ] */
  2026,'4 ',   1,   2,  10,     7.938,     2.249,     0.000,     0.000,     0.000,     0.000,   1,    1,  0,     0.000,     0.000,    0,'            ','                                        ' /* [ load_2026_4_161kv, load_WHEELER_0_2026_4_161kv ] */
  2027,'1 ',   1,   2,  11,     3.555,     1.007,     0.000,     0.000,     0.000,     0.000,   1,    1,  0,     0.000,     0.000,    0,'            ','                                        ' /* [ load_2027_1_161kv, load_DEPORT_0_2027_1_161kv ] */
  2028,'1 ',   1,   2,  11,    14.238,     4.034,     0.000,     0.000,     0.000,     0.000,   1,    1,  0,     0.000,     0.000,    0,'            ','                                        ' /* [ load_2028_1_161kv, load_WICHITA_FA_9_2028_1_161kv ] */
  2029,'1 ',   1,   2,  10,     3.201,     0.907,     0.000,     0.000,     0.000,     0.000,   1,    1,  0,     0.000,     0.000,    0,'            ','                                        ' /* [ load_2029_1_161kv, load_SILVERTON_0_2029_1_161kv ] */
  2030,'1 ',   1,   2,  11,     3.912,     1.108,     0.000,     0.000,     0.000,     0.000,   1,    1,  0,     0.000,     0.000,    0,'            ','                                        ' /* [ load_2030_1_161kv, load_BONHAM_0_2030_1_161kv ] */
  2030,'2 ',   1,   2,  11,    43.233,    12.249,     0.000,     0.000,     0.000,     0.000,   1,    1,  0,     0.000,     0.000,    0,'            ','                                        ' /* [ load_2030_2_161kv, load_BONHAM_0_2030_2_161kv ] */
  2031,'1 ',   1,   2,  10,     0.786,     0.223,     0.000,     0.000,     0.000,     0.000,   1,    1,  0,     0.000,     0.000,    0,'            ','                                        ' /* [ load_2031_1_161kv, load_MATADOR_0_2031_1_161kv ] */
  2031,'2 ',   1,   2,  10,     1.272,     0.360,     0.000,     0.000,     0.000,     0.000,   1,    1,  0,     0.000,     0.000,    0,'            ','                                        ' /* [ load_2031_2_161kv, load_MATADOR_0_2031_2_161kv ] */
  2031,'3 ',   1,   2,  10,     3.708,     1.051,     0.000,     0.000,     0.000,     0.000,   1,    1,  0,     0.000,     0.000,    0,'            ','                                        ' /* [ load_2031_3_161kv, load_MATADOR_0_2031_3_161kv ] */
  2032,'1 ',   1,   2,  11,     3.354,     0.950,     0.000,     0.000,     0.000,     0.000,   1,    1,  0,     0.000,     0.000,    0,'            ','                                        ' /* [ load_2032_1_161kv, load_ARTHUR_CIT_1_2032_1_161kv ] */
  2033,'1 ',   1,   2,  11,     1.302,     0.369,     0.000,     0.000,     0.000,     0.000,   1,    1,  0,     0.000,     0.000,    0,'            ','                                        ' /* [ load_2033_1_161kv, load_LEONARD_0_2033_1_161kv ] */
  2033,'2 ',   1,   2,  11,    12.270,     3.477,     0.000,     0.000,     0.000,     0.000,   1,    1,  0,     0.000,     0.000,    0,'            ','                                        ' /* [ load_2033_2_161kv, load_LEONARD_0_2033_2_161kv ] */
  2034,'1 ',   1,   2,  11,     5.340,     1.513,     0.000,     0.000,     0.000,     0.000,   1,    1,  0,     0.000,     0.000,    0,'            ','                                        ' /* [ load_2034_1_161kv, load_GORDONVILL_1_2034_1_161kv ] */
  2035,'1 ',   1,   2,  10,     4.149,     1.176,     0.000,     0.000,     0.000,     0.000,   1,    1,  0,     0.000,     0.000,    0,'            ','                                        ' /* [ load_2035_1_161kv, load_KNOX_CITY_0_2035_1_161kv ] */
  2035,'2 ',   1,   2,  10,     0.534,     0.151,     0.000,     0.000,     0.000,     0.000,   1,    1,  0,     0.000,     0.000,    0,'            ','                                        ' /* [ load_2035_2_161kv, load_KNOX_CITY_0_2035_2_161kv ] */
  2036,'1 ',   1,   2,  11,    41.586,    11.783,     0.000,     0.000,     0.000,     0.000,   1,    1,  0,     0.000,     0.000,    0,'            ','                                        ' /* [ load_2036_1_161kv, load_WICHITA_F_13_2036_1_161kv ] */
  2037,'1 ',   1,   2,  11,     0.690,     0.195,     0.000,     0.000,     0.000,     0.000,   1,    1,  0,     0.000,     0.000,    0,'            ','                                        ' /* [ load_2037_1_161kv, load_LINDSAY_0_2037_1_161kv ] */
  2037,'2 ',   1,   2,  11,     2.811,     0.796,     0.000,     0.000,     0.000,     0.000,   1,    1,  0,     0.000,     0.000,    0,'            ','                                        ' /* [ load_2037_2_161kv, load_LINDSAY_0_2037_2_161kv ] */
  2038,'1 ',   1,   2,  11,     2.604,     0.738,     0.000,     0.000,     0.000,     0.000,   1,    1,  0,     0.000,     0.000,    0,'            ','                                        ' /* [ load_2038_1_161kv, load_ECTOR_0_2038_1_161kv ] */
  2039,'1 ',   1,   2,  11,     5.559,     1.575,     0.000,     0.000,     0.000,     0.000,   1,    1,  0,     0.000,     0.000,    0,'            ','                                        ' /* [ load_2039_1_161kv, load_SUNSET_0_2039_1_161kv ] */
  2040,'1 ',   1,   2,  11,    15.903,     4.506,     0.000,     0.000,     0.000,     0.000,   1,    1,  0,     0.000,     0.000,    0,'            ','                                        ' /* [ load_2040_1_161kv, load_CLARKSVILL_1_2040_1_161kv ] */
  2043,'1 ',   1,   2,  11,     4.236,     1.200,     0.000,     0.000,     0.000,     0.000,   1,    1,  0,     0.000,     0.000,    0,'            ','                                        ' /* [ load_2043_1_161kv, load_SADLER_0_2043_1_161kv ] */
  2044,'1 ',   1,   2,  11,    27.405,     7.765,     0.000,     0.000,     0.000,     0.000,   1,    1,  0,     0.000,     0.000,    0,'            ','                                        ' /* [ load_2044_1_161kv, load_WHITESBORO_0_2044_1_161kv ] */
  2045,'1 ',   1,   2,  11,    22.605,     6.405,     0.000,     0.000,     0.000,     0.000,   1,    1,  0,     0.000,     0.000,    0,'            ','                                        ' /* [ load_2045_1_161kv, load_SHEPPARD_A_1_2045_1_161kv ] */
  2046,'1 ',   1,   2,  11,    22.134,     6.271,     0.000,     0.000,     0.000,     0.000,   1,    1,  0,     0.000,     0.000,    0,'            ','                                        ' /* [ load_2046_1_161kv, load_POTTSBORO_0_2046_1_161kv ] */
  2047,'1 ',   1,   2,  11,     9.408,     2.666,     0.000,     0.000,     0.000,     0.000,   1,    1,  0,     0.000,     0.000,    0,'            ','                                        ' /* [ load_2047_1_161kv, load_BELLS_0_2047_1_161kv ] */
  2047,'2 ',   1,   2,  11,     5.547,     1.572,     0.000,     0.000,     0.000,     0.000,   1,    1,  0,     0.000,     0.000,    0,'            ','                                        ' /* [ load_2047_2_161kv, load_BELLS_0_2047_2_161kv ] */
  2048,'1 ',   1,   2,  10,     6.417,     1.818,     0.000,     0.000,     0.000,     0.000,   1,    1,  0,     0.000,     0.000,    0,'            ','                                        ' /* [ load_2048_1_161kv, load_CROSBYTON_0_2048_1_161kv ] */
  2049,'1 ',   1,   2,  10,     0.486,     0.138,     0.000,     0.000,     0.000,     0.000,   1,    1,  0,     0.000,     0.000,    0,'            ','                                        ' /* [ load_2049_1_161kv, load_ELECTRA_0_2049_1_161kv ] */
  2049,'2 ',   1,   2,  10,     0.579,     0.164,     0.000,     0.000,     0.000,     0.000,   1,    1,  0,     0.000,     0.000,    0,'            ','                                        ' /* [ load_2049_2_161kv, load_ELECTRA_0_2049_2_161kv ] */
  2049,'3 ',   1,   2,  10,    10.506,     2.977,     0.000,     0.000,     0.000,     0.000,   1,    1,  0,     0.000,     0.000,    0,'            ','                                        ' /* [ load_2049_3_161kv, load_ELECTRA_0_2049_3_161kv ] */
  2050,'1 ',   1,   2,  11,     3.657,     1.036,     0.000,     0.000,     0.000,     0.000,   1,    1,  0,     0.000,     0.000,    0,'            ','                                        ' /* [ load_2050_1_161kv, load_PATTONVILL_1_2050_1_161kv ] */
  2051,'1 ',   1,   2,  11,    17.850,     5.057,     0.000,     0.000,     0.000,     0.000,   1,    1,  0,     0.000,     0.000,    0,'            ','                                        ' /* [ load_2051_1_161kv, load_HENRIETTA_0_2051_1_161kv ] */
  2052,'1 ',   1,   2,  10,     9.459,     2.680,     0.000,     0.000,     0.000,     0.000,   1,    1,  0,     0.000,     0.000,    0,'            ','                                        ' /* [ load_2052_1_161kv, load_PANHANDLE_13_2052_1_161kv ] */
  2052,'2 ',   1,   2,  10,    15.378,     4.357,     0.000,     0.000,     0.000,     0.000,   1,    1,  0,     0.000,     0.000,    0,'            ','                                        ' /* [ load_2052_2_161kv, load_PANHANDLE_13_2052_2_161kv ] */
  2053,'1 ',   1,   2,  11,    29.133,     8.254,     0.000,     0.000,     0.000,     0.000,   1,    1,  0,     0.000,     0.000,    0,'            ','                                        ' /* [ load_2053_1_161kv, load_BOWIE_0_2053_1_161kv ] */
  2055,'1 ',   1,   2,  11,    49.620,    14.059,     0.000,     0.000,     0.000,     0.000,   1,    1,  0,     0.000,     0.000,    0,'            ','                                        ' /* [ load_2055_1_161kv, load_WICHITA_FA_2_2055_1_161kv ] */
  2060,'1 ',   1,   2,  11,     3.795,     1.075,     0.000,     0.000,     0.000,     0.000,   1,    1,  0,     0.000,     0.000,    0,'            ','                                        ' /* [ load_2060_1_161kv, load_ROXTON_0_2060_1_161kv ] */
  2063,'1 ',   1,   2,  11,    65.616,    18.591,     0.000,     0.000,     0.000,     0.000,   1,    1,  0,     0.000,     0.000,    0,'            ','                                        ' /* [ load_2063_1_161kv, load_DENISON_2_0_2063_1_161kv ] */
  2064,'1 ',   1,   2,  11,     7.038,     1.994,     0.000,     0.000,     0.000,     0.000,   1,    1,  0,     0.000,     0.000,    0,'            ','                                        ' /* [ load_2064_1_161kv, load_SUMNER_0_2064_1_161kv ] */
  2064,'2 ',   1,   2,  11,     3.009,     0.853,     0.000,     0.000,     0.000,     0.000,   1,    1,  0,     0.000,     0.000,    0,'            ','                                        ' /* [ load_2064_2_161kv, load_SUMNER_0_2064_2_161kv ] */
  2065,'1 ',   1,   2,  11,    78.360,    22.202,     0.000,     0.000,     0.000,     0.000,   1,    1,  0,     0.000,     0.000,    0,'            ','                                        ' /* [ load_2065_1_161kv, load_GAINESVILL_1_2065_1_161kv ] */
  2066,'1 ',   1,   2,  10,     4.050,     1.147,     0.000,     0.000,     0.000,     0.000,   1,    1,  0,     0.000,     0.000,    0,'            ','                                        ' /* [ load_2066_1_161kv, load_ASPERMONT_0_2066_1_161kv ] */
  2066,'2 ',   1,   2,  10,     2.541,     0.720,     0.000,     0.000,     0.000,     0.000,   1,    1,  0,     0.000,     0.000,    0,'            ','                                        ' /* [ load_2066_2_161kv, load_ASPERMONT_0_2066_2_161kv ] */
  2066,'3 ',   1,   2,  10,     0.522,     0.148,     0.000,     0.000,     0.000,     0.000,   1,    1,  0,     0.000,     0.000,    0,'            ','                                        ' /* [ load_2066_3_161kv, load_ASPERMONT_0_2066_3_161kv ] */
  2067,'1 ',   1,   2,  11,    53.967,    15.291,     0.000,     0.000,     0.000,     0.000,   1,    1,  0,     0.000,     0.000,    0,'            ','                                        ' /* [ load_2067_1_161kv, load_WICHITA_F_11_2067_1_161kv ] */
  2068,'1 ',   1,   2,  11,     5.760,     1.632,     0.000,     0.000,     0.000,     0.000,   1,    1,  0,     0.000,     0.000,    0,'            ','                                        ' /* [ load_2068_1_161kv, load_WINDTHORST_0_2068_1_161kv ] */
  2069,'1 ',   1,   2,  11,    21.924,     6.212,     0.000,     0.000,     0.000,     0.000,   1,    1,  0,     0.000,     0.000,    0,'            ','                                        ' /* [ load_2069_1_161kv, load_HOWE_0_2069_1_161kv ] */
  2072,'1 ',   1,   2,  11,     9.705,     2.750,     0.000,     0.000,     0.000,     0.000,   1,    1,  0,     0.000,     0.000,    0,'            ','                                        ' /* [ load_2072_1_161kv, load_COLLINSVIL_1_2072_1_161kv ] */
  2079,'1 ',   1,   2,  10,     4.479,     1.269,     0.000,     0.000,     0.000,     0.000,   1,    1,  0,     0.000,     0.000,    0,'            ','                                        ' /* [ load_2079_1_161kv, load_PADUCAH_0_2079_1_161kv ] */
  2080,'1 ',   1,   2,  11,    16.932,     4.797,     0.000,     0.000,     0.000,     0.000,   1,    1,  0,     0.000,     0.000,    0,'            ','                                        ' /* [ load_2080_1_161kv, load_NOCONA_0_2080_1_161kv ] */
  2081,'1 ',   1,   2,  11,     4.464,     1.265,     0.000,     0.000,     0.000,     0.000,   1,    1,  0,     0.000,     0.000,    0,'            ','                                        ' /* [ load_2081_1_161kv, load_DODD_CITY_0_2081_1_161kv ] */
  2082,'1 ',   1,   2,  11,    59.031,    16.725,     0.000,     0.000,     0.000,     0.000,   1,    1,  0,     0.000,     0.000,    0,'            ','                                        ' /* [ load_2082_1_161kv, load_WICHITA_FA_5_2082_1_161kv ] */
  2086,'1 ',   1,   2,  11,     2.193,     0.621,     0.000,     0.000,     0.000,     0.000,   1,    1,  0,     0.000,     0.000,    0,'            ','                                        ' /* [ load_2086_1_161kv, load_MONTAGUE_0_2086_1_161kv ] */
  2087,'1 ',   1,   2,  10,     7.896,     2.237,     0.000,     0.000,     0.000,     0.000,   1,    1,  0,     0.000,     0.000,    0,'            ','                                        ' /* [ load_2087_1_161kv, load_SPUR_0_2087_1_161kv ] */
  2090,'1 ',   1,   2,  11,     2.424,     0.687,     0.000,     0.000,     0.000,     0.000,   1,    1,  0,     0.000,     0.000,    0,'            ','                                        ' /* [ load_2090_1_161kv, load_ANNONA_0_2090_1_161kv ] */
...